Circuit: * C:\Users\jcasa\Documents\projects\CTIA\spice\summer.asc

Direct Newton iteration failed to find .op point.  (Use ".option noopiter" to skip.)
Starting Gmin stepping
Gmin = 10
Gmin = 1.07374
Gmin = 0.115292
Gmin = 0.0123794
Gmin = 0.00132923
Gmin = 0.000142725
Gmin = 1.5325e-005
Gmin = 1.6455e-006
Gmin = 1.76685e-007
Gmin = 1.89714e-008
Gmin = 2.03704e-009
Gmin = 2.18725e-010
Gmin = 2.34854e-011
Gmin = 2.52173e-012
Gmin = 2.70769e-013
Gmin = 0
Gmin stepping succeeded in finding the operating point.


Date: Sun Mar 27 12:01:41 2016
Total elapsed time: 0.560 seconds.

tnom = 27
temp = 27
method = modified trap
totiter = 88100
traniter = 87733
tranpoints = 34784
accept = 24453
rejected = 10331
matrix size = 17
fillins = 4
solver = Normal
Matrix Compiler1:      48 opcodes  0.2/[0.1]/0.1
Matrix Compiler2: off  [0.2]/0.3/0.3


